.GLOBAL VDD VSS
.GLOBAL VBP VBN

*.CONNECT VBP VDD
*.CONNECT VBN VSS


.subckt SAEDRVT14_ADDF_V1_0P5 VDD VSS VBP VBN S CO A B CI
Mxmn12 CO con VSS VBN n08 l=0.014u nf=1 m=1 nfin=2
Mxmn11 S net86 VSS VBN n08 l=0.014u nf=1 m=1 nfin=2
Mxmn9 net102 con VSS VBN n08 l=0.014u nf=1 m=1 nfin=3
Mxmn8 VSS A net94 VBN n08 l=0.014u nf=1 m=1 nfin=3
Mxmn7 net94 B net102 VBN n08 l=0.014u nf=1 m=1 nfin=3
Mxmn6 net94 con net86 VBN n08 l=0.014u nf=1 m=1 nfin=3
Mxmn5 net86 CI net102 VBN n08 l=0.014u nf=1 m=1 nfin=3
Mxmn4 net82 B VSS VBN n08 l=0.014u nf=1 m=1 nfin=3
Mxmn3 con A net82 VBN n08 l=0.014u nf=1 m=1 nfin=2
Mxmn2 net70 B VSS VBN n08 l=0.014u nf=1 m=1 nfin=2
Mxmn1 net70 A VSS VBN n08 l=0.014u nf=1 m=1 nfin=2
Mxmn0 con CI net70 VBN n08 l=0.014u nf=1 m=1 nfin=2
Mxmp11 CO con VDD VBP p08 l=0.014u nf=1 m=1 nfin=2
Mxmp10 S net86 VDD VBP p08 l=0.014u nf=1 m=1 nfin=2
Mxmp9 net135 con net86 VBP p08 l=0.014u nf=1 m=1 nfin=3
Mxmp8 net86 CI net139 VBP p08 l=0.014u nf=1 m=1 nfin=3
Mxmp7 net139 B net135 VBP p08 l=0.014u nf=1 m=1 nfin=3
Mxmp6 VDD A net135 VBP p08 l=0.014u nf=1 m=1 nfin=3
Mxmp5 net139 con VDD VBP p08 l=0.014u nf=1 m=1 nfin=3
Mxmp4 con A net123 VBP p08 l=0.014u nf=1 m=1 nfin=2
Mxmp3 net123 B VDD VBP p08 l=0.014u nf=1 m=1 nfin=3
Mxmp2 net111 B VDD VBP p08 l=0.014u nf=1 m=1 nfin=2
Mxmp1 con CI net111 VBP p08 l=0.014u nf=1 m=1 nfin=2
Mxmp0 net111 A VDD VBP p08 l=0.014u nf=1 m=1 nfin=2
.ends SAEDRVT14_ADDF_V1_0P5




.subckt SAEDRVT14_ADDF_V1_1 VDD VSS VBP VBN S CO A B CI
Mxmn12 CO con VSS VBN n08 l=0.014u nf=1 m=1 nfin=4
Mxmn11 S net86 VSS VBN n08 l=0.014u nf=1 m=1 nfin=4
Mxmn9 net102 con VSS VBN n08 l=0.014u nf=1 m=1 nfin=4
Mxmn8 VSS A net94 VBN n08 l=0.014u nf=1 m=1 nfin=4
Mxmn7 net94 B net102 VBN n08 l=0.014u nf=1 m=1 nfin=4
Mxmn6 net94 con net86 VBN n08 l=0.014u nf=1 m=1 nfin=4
Mxmn5 net86 CI net102 VBN n08 l=0.014u nf=1 m=1 nfin=4
Mxmn4 net82 B VSS VBN n08 l=0.014u nf=1 m=1 nfin=4
Mxmn3 con A net82 VBN n08 l=0.014u nf=1 m=1 nfin=4
Mxmn2 net70 B VSS VBN n08 l=0.014u nf=1 m=1 nfin=4
Mxmn1 net70 A VSS VBN n08 l=0.014u nf=1 m=1 nfin=4
Mxmn0 con CI net70 VBN n08 l=0.014u nf=1 m=1 nfin=4
Mxmp11 CO con VDD VBP p08 l=0.014u nf=1 m=1 nfin=4
Mxmp10 S net86 VDD VBP p08 l=0.014u nf=1 m=1 nfin=4
Mxmp9 net135 con net86 VBP p08 l=0.014u nf=1 m=1 nfin=4
Mxmp8 net86 CI net139 VBP p08 l=0.014u nf=1 m=1 nfin=4
Mxmp7 net139 B net135 VBP p08 l=0.014u nf=1 m=1 nfin=4
Mxmp6 VDD A net135 VBP p08 l=0.014u nf=1 m=1 nfin=4
Mxmp5 net139 con VDD VBP p08 l=0.014u nf=1 m=1 nfin=4
Mxmp4 con A net123 VBP p08 l=0.014u nf=1 m=1 nfin=4
Mxmp3 net123 B VDD VBP p08 l=0.014u nf=1 m=1 nfin=4
Mxmp2 net111 B VDD VBP p08 l=0.014u nf=1 m=1 nfin=4
Mxmp1 con CI net111 VBP p08 l=0.014u nf=1 m=1 nfin=4
Mxmp0 net111 A VDD VBP p08 l=0.014u nf=1 m=1 nfin=4
.ends SAEDRVT14_ADDF_V1_1




.subckt SAEDRVT14_ADDF_V1_2 VDD VSS VBP VBN S CO A B CI
Mxmn12 CO con VSS VBN n08 l=0.014u nf=2 m=2 nfin=4
Mxmn11 S net86 VSS VBN n08 l=0.014u nf=2 m=2 nfin=4
Mxmn9 net102 con VSS VBN n08 l=0.014u nf=1 m=1 nfin=4
Mxmn8 VSS A net94 VBN n08 l=0.014u nf=1 m=1 nfin=4
Mxmn7 net94 B net102 VBN n08 l=0.014u nf=1 m=1 nfin=4
Mxmn6 net94 con net86 VBN n08 l=0.014u nf=1 m=1 nfin=4
Mxmn5 net86 CI net102 VBN n08 l=0.014u nf=1 m=1 nfin=4
Mxmn4 net82 B VSS VBN n08 l=0.014u nf=1 m=1 nfin=4
Mxmn3 con A net82 VBN n08 l=0.014u nf=1 m=1 nfin=4
Mxmn2 net70 B VSS VBN n08 l=0.014u nf=1 m=1 nfin=4
Mxmn1 net70 A VSS VBN n08 l=0.014u nf=1 m=1 nfin=4
Mxmn0 con CI net70 VBN n08 l=0.014u nf=1 m=1 nfin=4
Mxmp11 CO con VDD VBP p08 l=0.014u nf=2 m=2 nfin=4
Mxmp10 S net86 VDD VBP p08 l=0.014u nf=2 m=2 nfin=4
Mxmp9 net135 con net86 VBP p08 l=0.014u nf=1 m=1 nfin=4
Mxmp8 net86 CI net139 VBP p08 l=0.014u nf=1 m=1 nfin=4
Mxmp7 net139 B net135 VBP p08 l=0.014u nf=1 m=1 nfin=4
Mxmp6 VDD A net135 VBP p08 l=0.014u nf=1 m=1 nfin=4
Mxmp5 net139 con VDD VBP p08 l=0.014u nf=1 m=1 nfin=4
Mxmp4 con A net123 VBP p08 l=0.014u nf=1 m=1 nfin=4
Mxmp3 net123 B VDD VBP p08 l=0.014u nf=1 m=1 nfin=4
Mxmp2 net111 B VDD VBP p08 l=0.014u nf=1 m=1 nfin=4
Mxmp1 con CI net111 VBP p08 l=0.014u nf=1 m=1 nfin=4
Mxmp0 net111 A VDD VBP p08 l=0.014u nf=1 m=1 nfin=4
.ends SAEDRVT14_ADDF_V1_2




.subckt SAEDRVT14_ADDF_V2_0P5 VDD VSS VBP VBN S CO A B CI
Mxmn28 net60 pn net74 VBN n08 l=0.014u nf=1 m=1 nfin=3
Mxmn27 net56 p net74 VBN n08 l=0.014u nf=1 m=1 nfin=3
Mxmn26 CO net74 VSS VBN n08 l=0.014u nf=1 m=1 nfin=2
Mxmn25 S net67 VSS VBN n08 l=0.014u nf=1 m=1 nfin=2
Mxmn24 pn p VSS VBN n08 l=0.014u nf=1 m=1 nfin=2
Mxmn23 net58 p net67 VBN n08 l=0.014u nf=1 m=1 nfin=2
Mxmn22 net56 pn net67 VBN n08 l=0.014u nf=1 m=1 nfin=2
Mxmn21 net56 CI VSS VBN n08 l=0.014u nf=2 m=1 nfin=2
Mxmn20 net58 net56 VSS VBN n08 l=0.014u nf=1 m=1 nfin=2
Mxmn18 net18 B p VBN n08 l=0.014u nf=1 m=1 nfin=3
Mxmn17 net60 B VSS VBN n08 l=0.014u nf=1 m=1 nfin=3
Mxmn16 net59 net60 p VBN n08 l=0.014u nf=1 m=1 nfin=3
Mxmn15 net59 net18 VSS VBN n08 l=0.014u nf=1 m=1 nfin=2
Mxmn14 net18 A VSS VBN n08 l=0.014u nf=1 m=1 nfin=3
Mxmpdummy VDD A VDD VBP p08 l=0.014u nf=1 m=1 nfin=2
Mxmp26 net60 p net74 VBP p08 l=0.014u nf=1 m=1 nfin=3
Mxmp25 CO net74 VDD VBP p08 l=0.014u nf=1 m=1 nfin=2
Mxmp24 net56 pn net74 VBP p08 l=0.014u nf=1 m=1 nfin=3
Mxmp23 S net67 VDD VBP p08 l=0.014u nf=1 m=1 nfin=2
Mxmp22 pn p VDD VBP p08 l=0.014u nf=1 m=1 nfin=2
Mxmp21 net56 p net67 VBP p08 l=0.014u nf=1 m=1 nfin=2
Mxmp20 net049 pn net67 VBP p08 l=0.014u nf=1 m=1 nfin=2
Mxmp19 net56 CI VDD VBP p08 l=0.014u nf=2 m=1 nfin=2
Mxmp18 net049 net56 VDD VBP p08 l=0.014u nf=1 m=1 nfin=2
Mxmp16 net18 net60 p VBP p08 l=0.014u nf=1 m=1 nfin=2
Mxmp15 net60 B VDD VBP p08 l=0.014u nf=1 m=1 nfin=3
Mxmp14 net050 B p VBP p08 l=0.014u nf=1 m=1 nfin=2
Mxmp13 net050 net18 VDD VBP p08 l=0.014u nf=1 m=1 nfin=2
Mxmp12 net18 A VDD VBP p08 l=0.014u nf=1 m=1 nfin=2
.ends SAEDRVT14_ADDF_V2_0P5




.subckt SAEDRVT14_ADDF_V2_1 VDD VSS VBP VBN S CO A B CI
Mxmp26 net60 p net74 VBP p08 l=0.014u nf=1 m=1 nfin=3
Mxmp25 CO net74 VDD VBP p08 l=0.014u nf=1 m=1 nfin=4
Mxmp24 net56 pn net74 VBP p08 l=0.014u nf=1 m=1 nfin=3
Mxmp23 S net67 VDD VBP p08 l=0.014u nf=1 m=1 nfin=4
Mxmp22 pn p VDD VBP p08 l=0.014u nf=1 m=1 nfin=4
Mxmp21 net56 p net67 VBP p08 l=0.014u nf=1 m=1 nfin=3
Mxmp20 net050 pn net67 VBP p08 l=0.014u nf=1 m=1 nfin=3
Mxmp19 net56 CI VDD VBP p08 l=0.014u nf=2 m=1 nfin=3
Mxmp18 net050 net56 VDD VBP p08 l=0.014u nf=1 m=1 nfin=3
Mxmp16 net18 net60 p VBP p08 l=0.014u nf=1 m=1 nfin=3
Mxmp15 net60 B VDD VBP p08 l=0.014u nf=1 m=1 nfin=4
Mxmp14 net051 B p VBP p08 l=0.014u nf=1 m=1 nfin=3
Mxmp13 net051 net18 VDD VBP p08 l=0.014u nf=1 m=1 nfin=3
Mxmp12 net18 A VDD VBP p08 l=0.014u nf=1 m=1 nfin=4
Mxmmp13 VDD A VDD VBP p08 l=0.014u nf=1 m=1 nfin=4
Mxmn28 net60 pn net74 VBN n08 l=0.014u nf=1 m=1 nfin=3
Mxmn27 net56 p net74 VBN n08 l=0.014u nf=1 m=1 nfin=3
Mxmn26 CO net74 VSS VBN n08 l=0.014u nf=1 m=1 nfin=4
Mxmn25 S net67 VSS VBN n08 l=0.014u nf=1 m=1 nfin=4
Mxmn24 pn p VSS VBN n08 l=0.014u nf=1 m=1 nfin=4
Mxmn23 net58 p net67 VBN n08 l=0.014u nf=1 m=1 nfin=3
Mxmn22 net56 pn net67 VBN n08 l=0.014u nf=1 m=1 nfin=3
Mxmn21 net56 CI VSS VBN n08 l=0.014u nf=2 m=1 nfin=3
Mxmn20 net58 net56 VSS VBN n08 l=0.014u nf=1 m=1 nfin=3
Mxmn18 net18 B p VBN n08 l=0.014u nf=1 m=1 nfin=3
Mxmn17 net60 B VSS VBN n08 l=0.014u nf=1 m=1 nfin=3
Mxmn16 net59 net60 p VBN n08 l=0.014u nf=1 m=1 nfin=3
Mxmn15 net59 net18 VSS VBN n08 l=0.014u nf=1 m=1 nfin=3
Mxmn14 net18 A VSS VBN n08 l=0.014u nf=1 m=1 nfin=4
.ends SAEDRVT14_ADDF_V2_1




.subckt SAEDRVT14_ADDF_V2_2 VDD VSS VBP VBN S CO A B CI
Mxmn28 net60 pn net74 VBN n08 l=0.014u nf=1 m=1 nfin=3
Mxmn27 net56 p net74 VBN n08 l=0.014u nf=1 m=1 nfin=3
Mxmn26 CO net74 VSS VBN n08 l=0.014u nf=2 m=1 nfin=4
Mxmn25 S net67 VSS VBN n08 l=0.014u nf=2 m=1 nfin=4
Mxmn24 pn p VSS VBN n08 l=0.014u nf=1 m=1 nfin=4
Mxmn23 net58 p net67 VBN n08 l=0.014u nf=1 m=1 nfin=3
Mxmn22 net56 pn net67 VBN n08 l=0.014u nf=1 m=1 nfin=3
Mxmn21 net56 CI VSS VBN n08 l=0.014u nf=2 m=1 nfin=3
Mxmn20 net58 net56 VSS VBN n08 l=0.014u nf=1 m=1 nfin=3
Mxmn18 net18 B p VBN n08 l=0.014u nf=1 m=1 nfin=3
Mxmn17 net60 B VSS VBN n08 l=0.014u nf=1 m=1 nfin=3
Mxmn16 net59 net60 p VBN n08 l=0.014u nf=1 m=1 nfin=3
Mxmn15 net59 net18 VSS VBN n08 l=0.014u nf=1 m=1 nfin=3
Mxmn14 net18 A VSS VBN n08 l=0.014u nf=1 m=1 nfin=4
Mxmpdummy VDD A VDD VBP p08 l=0.014u nf=1 m=1 nfin=4
Mxmp26 net60 p net74 VBP p08 l=0.014u nf=1 m=1 nfin=3
Mxmp25 CO net74 VDD VBP p08 l=0.014u nf=2 m=1 nfin=4
Mxmp24 net56 pn net74 VBP p08 l=0.014u nf=1 m=1 nfin=3
Mxmp23 S net67 VDD VBP p08 l=0.014u nf=2 m=1 nfin=4
Mxmp22 pn p VDD VBP p08 l=0.014u nf=1 m=1 nfin=4
Mxmp21 net56 p net67 VBP p08 l=0.014u nf=1 m=1 nfin=3
Mxmp20 net049 pn net67 VBP p08 l=0.014u nf=1 m=1 nfin=3
Mxmp19 net56 CI VDD VBP p08 l=0.014u nf=2 m=1 nfin=3
Mxmp18 net049 net56 VDD VBP p08 l=0.014u nf=1 m=1 nfin=3
Mxmp16 net18 net60 p VBP p08 l=0.014u nf=1 m=1 nfin=3
Mxmp15 net60 B VDD VBP p08 l=0.014u nf=1 m=1 nfin=4
Mxmp14 net050 B p VBP p08 l=0.014u nf=1 m=1 nfin=3
Mxmp13 net050 net18 VDD VBP p08 l=0.014u nf=1 m=1 nfin=3
Mxmp12 net18 A VDD VBP p08 l=0.014u nf=1 m=1 nfin=4
.ends SAEDRVT14_ADDF_V2_2




.subckt SAEDRVT14_ADDH_0P5 VDD VSS VBP VBN S CO A B
Mxmi1#2fn2 CO i1#2fint_zn VSS VBN n08 l=0.014u nf=1 m=1 nfin=2
Mxmi1#2fn1 i1#2fmidn_a_b B VSS VBN n08 l=0.014u nf=1 m=1 nfin=3
Mxmi1#2fn0 i1#2fint_zn A i1#2fmidn_a_b VBN n08 l=0.014u nf=1 m=1 nfin=3
Mxmi0#2fn5 i0#2fab A VSS VBN n08 l=0.014u nf=1 m=1 nfin=2
Mxmi0#2fn4 S i0#2fint_zn VSS VBN n08 l=0.014u nf=1 m=1 nfin=2
Mxmi0#2fi0#2fn3 i0#2fi0#2fbb i0#2fab i0#2fint_zn VBN n08 l=0.014u nf=1 m=1 nfin=2
Mxmi0#2fi0#2fn2 i0#2fi0#2fbb B VSS VBN n08 l=0.014u nf=1 m=1 nfin=3
Mxmi0#2fi0#2fn1 i0#2fi0#2fbbb A i0#2fint_zn VBN n08 l=0.014u nf=1 m=1 nfin=2
Mxmi0#2fi0#2fn0 i0#2fi0#2fbbb i0#2fi0#2fbb VSS VBN n08 l=0.014u nf=1 m=1 nfin=2
Mxmi1#2fp2 CO i1#2fint_zn VDD VBP p08 l=0.014u nf=1 m=1 nfin=2
Mxmi1#2fp1 i1#2fint_zn A VDD VBP p08 l=0.014u nf=1 m=1 nfin=3
Mxmi1#2fp0 i1#2fint_zn B VDD VBP p08 l=0.014u nf=1 m=1 nfin=3
Mxmi0#2fp5 i0#2fab A VDD VBP p08 l=0.014u nf=1 m=1 nfin=2
Mxmi0#2fp4 S i0#2fint_zn VDD VBP p08 l=0.014u nf=1 m=1 nfin=2
Mxmi0#2fi0#2fp3 i0#2fi0#2fbb A i0#2fint_zn VBP p08 l=0.014u nf=1 m=1 nfin=3
Mxmi0#2fi0#2fp2 i0#2fi0#2fbb B VDD VBP p08 l=0.014u nf=1 m=1 nfin=3
Mxmi0#2fi0#2fp1 i0#2fi0#2fnet21 i0#2fab i0#2fint_zn VBP p08 l=0.014u nf=1 m=1
+ nfin=3
Mxmi0#2fi0#2fp0 i0#2fi0#2fnet21 i0#2fi0#2fbb VDD VBP p08 l=0.014u nf=1 m=1 nfin=2
.ends SAEDRVT14_ADDH_0P5




.subckt SAEDRVT14_ADDH_1 VDD VSS VBP VBN S CO A B
Mxmi1#2fn2 CO i1#2fint_zn VSS VBN n08 l=0.014u nf=1 m=1 nfin=4
Mxmi1#2fn1 i1#2fmidn_a_b B VSS VBN n08 l=0.014u nf=1 m=1 nfin=3
Mxmi1#2fn0 i1#2fint_zn A i1#2fmidn_a_b VBN n08 l=0.014u nf=1 m=1 nfin=3
Mxmi0#2fn5 i0#2fab A VSS VBN n08 l=0.014u nf=1 m=1 nfin=2
Mxmi0#2fn4 S i0#2fint_zn VSS VBN n08 l=0.014u nf=1 m=1 nfin=4
Mxmi0#2fi0#2fn3 i0#2fi0#2fbb i0#2fab i0#2fint_zn VBN n08 l=0.014u nf=1 m=1 nfin=2
Mxmi0#2fi0#2fn2 i0#2fi0#2fbb B VSS VBN n08 l=0.014u nf=1 m=1 nfin=3
Mxmi0#2fi0#2fn1 i0#2fi0#2fbbb A i0#2fint_zn VBN n08 l=0.014u nf=1 m=1 nfin=2
Mxmi0#2fi0#2fn0 i0#2fi0#2fbbb i0#2fi0#2fbb VSS VBN n08 l=0.014u nf=1 m=1 nfin=2
Mxmi1#2fp2 CO i1#2fint_zn VDD VBP p08 l=0.014u nf=1 m=1 nfin=4
Mxmi1#2fp1 i1#2fint_zn A VDD VBP p08 l=0.014u nf=1 m=1 nfin=3
Mxmi1#2fp0 i1#2fint_zn B VDD VBP p08 l=0.014u nf=1 m=1 nfin=3
Mxmi0#2fp5 i0#2fab A VDD VBP p08 l=0.014u nf=1 m=1 nfin=2
Mxmi0#2fp4 S i0#2fint_zn VDD VBP p08 l=0.014u nf=1 m=1 nfin=4
Mxmi0#2fi0#2fp3 i0#2fi0#2fbb A i0#2fint_zn VBP p08 l=0.014u nf=1 m=1 nfin=3
Mxmi0#2fi0#2fp2 i0#2fi0#2fbb B VDD VBP p08 l=0.014u nf=1 m=1 nfin=3
Mxmi0#2fi0#2fp1 i0#2fi0#2fnet21 i0#2fab i0#2fint_zn VBP p08 l=0.014u nf=1 m=1
+ nfin=3
Mxmi0#2fi0#2fp0 i0#2fi0#2fnet21 i0#2fi0#2fbb VDD VBP p08 l=0.014u nf=1 m=1 nfin=2
.ends SAEDRVT14_ADDH_1




.subckt SAEDRVT14_ADDH_2 VDD VSS VBP VBN S CO A B
Mxmmn0 VSS B VSS VBN n08 l=0.014u nf=1 m=1 nfin=4
Mxmi1#2fn2 CO i1#2fint_zn VSS VBN n08 l=0.014u nf=2 m=2 nfin=4
Mxmi1#2fn1 i1#2fmidn_a_b B VSS VBN n08 l=0.014u nf=1 m=1 nfin=4
Mxmi1#2fn0 i1#2fint_zn A i1#2fmidn_a_b VBN n08 l=0.014u nf=1 m=1 nfin=4
Mxmi0#2fn5 i0#2fab A VSS VBN n08 l=0.014u nf=1 m=1 nfin=2
Mxmi0#2fn4 S i0#2fint_zn VSS VBN n08 l=0.014u nf=2 m=2 nfin=4
Mxmi0#2fi0#2fn3 i0#2fi0#2fbb i0#2fab i0#2fint_zn VBN n08 l=0.014u nf=1 m=1 nfin=4
Mxmi0#2fi0#2fn2 i0#2fi0#2fbb B VSS VBN n08 l=0.014u nf=1 m=1 nfin=4
Mxmi0#2fi0#2fn1 i0#2fi0#2fbbb A i0#2fint_zn VBN n08 l=0.014u nf=1 m=1 nfin=4
Mxmi0#2fi0#2fn0 i0#2fi0#2fbbb i0#2fi0#2fbb VSS VBN n08 l=0.014u nf=1 m=1 nfin=4
Mxmi1#2fp2 CO i1#2fint_zn VDD VBP p08 l=0.014u nf=2 m=2 nfin=4
Mxmi1#2fp1 i1#2fint_zn A VDD VBP p08 l=0.014u nf=1 m=1 nfin=4
Mxmi1#2fp0 i1#2fint_zn B VDD VBP p08 l=0.014u nf=1 m=1 nfin=4
Mxmi0#2fp5 i0#2fab A VDD VBP p08 l=0.014u nf=1 m=1 nfin=2
Mxmi0#2fp4 S i0#2fint_zn VDD VBP p08 l=0.014u nf=2 m=2 nfin=4
Mxmi0#2fi0#2fp3 i0#2fi0#2fbb A i0#2fint_zn VBP p08 l=0.014u nf=1 m=1 nfin=4
Mxmi0#2fi0#2fp2 i0#2fi0#2fbb B VDD VBP p08 l=0.014u nf=1 m=1 nfin=4
Mxmi0#2fi0#2fp1 i0#2fi0#2fnet21 i0#2fab i0#2fint_zn VBP p08 l=0.014u nf=1 m=1
+ nfin=4
Mxmi0#2fi0#2fp0 i0#2fi0#2fnet21 i0#2fi0#2fbb VDD VBP p08 l=0.014u nf=1 m=1 nfin=4
.ends SAEDRVT14_ADDH_2




.subckt SAEDRVT14_ADDH_4 VDD VSS VBP VBN S CO A B
Mxmi1#2fn11 i1#2fmidn_a_b1 B VSS VBN n08 l=0.014u nf=1 m=1 nfin=4
Mxmi1#2fn01 i1#2fint_zn A i1#2fmidn_a_b1 VBN n08 l=0.014u nf=1 m=1 nfin=4
Mxmi1#2fn2 CO i1#2fint_zn VSS VBN n08 l=0.014u nf=4 m=4 nfin=4
Mxmi1#2fn1 i1#2fmidn_a_b B VSS VBN n08 l=0.014u nf=1 m=1 nfin=4
Mxmi1#2fn0 i1#2fint_zn A i1#2fmidn_a_b VBN n08 l=0.014u nf=1 m=1 nfin=4
Mxmi0#2fn5 i0#2fab A VSS VBN n08 l=0.014u nf=1 m=1 nfin=4
Mxmi0#2fn4 S i0#2fint_zn VSS VBN n08 l=0.014u nf=4 m=4 nfin=4
Mxmi0#2fi0#2fn3 i0#2fi0#2fbb i0#2fab i0#2fint_zn VBN n08 l=0.014u nf=1 m=1 nfin=4
Mxmi0#2fi0#2fn2 i0#2fi0#2fbb B VSS VBN n08 l=0.014u nf=2 m=2 nfin=4
Mxmi0#2fi0#2fn1 i0#2fi0#2fbbb A i0#2fint_zn VBN n08 l=0.014u nf=1 m=1 nfin=4
Mxmi0#2fi0#2fn0 i0#2fi0#2fbbb i0#2fi0#2fbb VSS VBN n08 l=0.014u nf=2 m=2 nfin=4
Mxmi1#2fp2 CO i1#2fint_zn VDD VBP p08 l=0.014u nf=4 m=4 nfin=4
Mxmi1#2fp1 i1#2fint_zn A VDD VBP p08 l=0.014u nf=2 m=2 nfin=4
Mxmi1#2fp0 i1#2fint_zn B VDD VBP p08 l=0.014u nf=2 m=2 nfin=4
Mxmi0#2fp5 i0#2fab A VDD VBP p08 l=0.014u nf=1 m=1 nfin=4
Mxmi0#2fp4 S i0#2fint_zn VDD VBP p08 l=0.014u nf=4 m=4 nfin=4
Mxmi0#2fi0#2fp3 i0#2fi0#2fbb A i0#2fint_zn VBP p08 l=0.014u nf=1 m=1 nfin=4
Mxmi0#2fi0#2fp2 i0#2fi0#2fbb B VDD VBP p08 l=0.014u nf=2 m=2 nfin=4
Mxmi0#2fi0#2fp1 i0#2fi0#2fnet21 i0#2fab i0#2fint_zn VBP p08 l=0.014u nf=1 m=1
+ nfin=4
Mxmi0#2fi0#2fp0 i0#2fi0#2fnet21 i0#2fi0#2fbb VDD VBP p08 l=0.014u nf=2 m=2 nfin=4
.ends SAEDRVT14_ADDH_4




.subckt SAEDRVT14_AN2_0P5 VDD VSS VBP VBN X A1 A2
Mxmi0#2fn2 X i0#2fint_zn VSS VBN n08 l=0.014u nf=2 m=1 nfin=2
Mxmi0#2fn1 i0#2fmidn_a_b A2 VSS VBN n08 l=0.014u nf=1 m=1 nfin=2
Mxmi0#2fn0 i0#2fint_zn A1 i0#2fmidn_a_b VBN n08 l=0.014u nf=1 m=1 nfin=2
Mxmi0#2fp2 X i0#2fint_zn VDD VBP p08 l=0.014u nf=3 m=1 nfin=2
Mxmi0#2fp1 i0#2fint_zn A1 VDD VBP p08 l=0.014u nf=1 m=1 nfin=2
Mxmi0#2fp0 i0#2fint_zn A2 VDD VBP p08 l=0.014u nf=1 m=1 nfin=2
.ends SAEDRVT14_AN2_0P5




.subckt SAEDRVT14_AN2_0P75 VDD VSS VBP VBN X A1 A2
Mxmi0#2fn2 X i0#2fint_zn VSS VBN n08 l=0.014u nf=2 m=1 nfin=2
Mxmi0#2fn1 i0#2fmidn_a_b A2 VSS VBN n08 l=0.014u nf=1 m=1 nfin=3
Mxmi0#2fn0 i0#2fint_zn A1 i0#2fmidn_a_b VBN n08 l=0.014u nf=1 m=1 nfin=3
Mxmi0#2fp2 X i0#2fint_zn VDD VBP p08 l=0.014u nf=2 m=1 nfin=3
Mxmi0#2fp1 i0#2fint_zn A1 VDD VBP p08 l=0.014u nf=1 m=1 nfin=3
Mxmi0#2fp0 i0#2fint_zn A2 VDD VBP p08 l=0.014u nf=1 m=1 nfin=3
.ends SAEDRVT14_AN2_0P75




.subckt SAEDRVT14_AN2_1 VDD VSS VBP VBN X A1 A2
Mxmi0#2fn2 X i0#2fint_zn VSS VBN n08 l=0.014u nf=1 m=1 nfin=3
Mxmi0#2fn1 i0#2fmidn_a_b A2 VSS VBN n08 l=0.014u nf=1 m=1 nfin=3
Mxmi0#2fn0 i0#2fint_zn A1 i0#2fmidn_a_b VBN n08 l=0.014u nf=1 m=1 nfin=3
Mxmi0#2fp2 X i0#2fint_zn VDD VBP p08 l=0.014u nf=1 m=1 nfin=4
Mxmi0#2fp1 i0#2fint_zn A1 VDD VBP p08 l=0.014u nf=1 m=1 nfin=3
Mxmi0#2fp0 i0#2fint_zn A2 VDD VBP p08 l=0.014u nf=1 m=1 nfin=3
.ends SAEDRVT14_AN2_1




.subckt SAEDRVT14_AN2_2 VDD VSS VBP VBN X A1 A2
Mxmi0#2fn2 X i0#2fint_zn VSS VBN n08 l=0.014u nf=2 m=1 nfin=3
Mxmi0#2fn1 i0#2fmidn_a_b A2 VSS VBN n08 l=0.014u nf=1 m=1 nfin=4
Mxmi0#2fn0 i0#2fint_zn A1 i0#2fmidn_a_b VBN n08 l=0.014u nf=1 m=1 nfin=4
Mxmi0#2fp2 X i0#2fint_zn VDD VBP p08 l=0.014u nf=2 m=1 nfin=4
Mxmi0#2fp1 i0#2fint_zn A1 VDD VBP p08 l=0.014u nf=1 m=1 nfin=4
Mxmi0#2fp0 i0#2fint_zn A2 VDD VBP p08 l=0.014u nf=1 m=1 nfin=4
.ends SAEDRVT14_AN2_2




.subckt SAEDRVT14_AN2_4 VDD VSS VBP VBN X A1 A2
Mxmi0#2fn11 i0#2fmidn_a_b1 A2 VSS VBN n08 l=0.014u nf=1 m=1 nfin=4
Mxmi0#2fn01 i0#2fint_zn A1 i0#2fmidn_a_b1 VBN n08 l=0.014u nf=1 m=1 nfin=4
Mxmi0#2fn2 X i0#2fint_zn VSS VBN n08 l=0.014u nf=4 m=1 nfin=3
Mxmi0#2fn1 i0#2fmidn_a_b A2 VSS VBN n08 l=0.014u nf=1 m=1 nfin=4
Mxmi0#2fn0 i0#2fint_zn A1 i0#2fmidn_a_b VBN n08 l=0.014u nf=1 m=1 nfin=4
Mxmi0#2fp2 X i0#2fint_zn VDD VBP p08 l=0.014u nf=4 m=1 nfin=4
Mxmi0#2fp1 i0#2fint_zn A1 VDD VBP p08 l=0.014u nf=2 m=1 nfin=4
Mxmi0#2fp0 i0#2fint_zn A2 VDD VBP p08 l=0.014u nf=2 m=1 nfin=4
.ends SAEDRVT14_AN2_4




.subckt SAEDRVT14_AN2_8 VDD VSS VBP VBN X A1 A2
Mxmi0#2fn2 X i0#2fint_zn VSS VBN n08 l=0.014u nf=8 m=1 nfin=3
Mxmi0#2fn1 i0#2fmidn_a_b A2 VSS VBN n08 l=0.014u nf=4 m=1 nfin=4
Mxmi0#2fn0 i0#2fint_zn A1 i0#2fmidn_a_b VBN n08 l=0.014u nf=4 m=1 nfin=4
Mxmi0#2fp2 X i0#2fint_zn VDD VBP p08 l=0.014u nf=8 m=1 nfin=4
Mxmi0#2fp1 i0#2fint_zn A1 VDD VBP p08 l=0.014u nf=4 m=1 nfin=4
Mxmi0#2fp0 i0#2fint_zn A2 VDD VBP p08 l=0.014u nf=4 m=1 nfin=4
.ends SAEDRVT14_AN2_8




.subckt SAEDRVT14_AN2B_MM_12 A B VBN VBP VDD VSS X
Mxmi0#2fn13 i0#2fmidn_a_b3 B VSS VBN n08 l=0.014u nf=1 m=1 nfin=4
Mxmi0#2fn12 i0#2fmidn_a_b2 B VSS VBN n08 l=0.014u nf=1 m=1 nfin=4
Mxmi0#2fn11 i0#2fmidn_a_b1 B VSS VBN n08 l=0.014u nf=1 m=1 nfin=4
Mxmi0#2fn03 int_zn i0#2fckb i0#2fmidn_a_b3 VBN n08 l=0.014u nf=1 m=1 nfin=4
Mxmi0#2fn02 int_zn i0#2fckb i0#2fmidn_a_b2 VBN n08 l=0.014u nf=1 m=1 nfin=4
Mxmi0#2fn01 int_zn i0#2fckb i0#2fmidn_a_b1 VBN n08 l=0.014u nf=1 m=1 nfin=4
Mxmi0#2fn2 X int_zn VSS VBN n08 l=0.014u nf=12 m=1 nfin=4
Mxmi0#2fn1 i0#2fmidn_a_b B VSS VBN n08 l=0.014u nf=1 m=1 nfin=4
Mxmi0#2fn0 int_zn i0#2fckb i0#2fmidn_a_b VBN n08 l=0.014u nf=1 m=1 nfin=4
Mxmi0#2fmn2 i0#2fckb A VSS VBN n08 l=0.014u nf=1 m=1 nfin=4
Mxmi0#2fp2 X int_zn VDD VBP p08 l=0.014u nf=12 m=1 nfin=4
Mxmi0#2fp1 int_zn B VDD VBP p08 l=0.014u nf=4. m=1 nfin=3
Mxmi0#2fp0 int_zn i0#2fckb VDD VBP p08 l=0.014u nf=4 m=1 nfin=3
Mxmi0#2fmp2 i0#2fckb A VDD VBP p08 l=0.014u nf=1 m=1 nfin=4
.ends SAEDRVT14_AN2B_MM_12




.subckt SAEDRVT14_AN2B_MM_16 A B VBN VBP VDD VSS X
Mxmi0#2fn14 i0#2fmidn_a_b4 B VSS VBN n08 l=0.014u nf=1 m=1 nfin=4
Mxmi0#2fn13 i0#2fmidn_a_b3 B VSS VBN n08 l=0.014u nf=1 m=1 nfin=4
Mxmi0#2fn12 i0#2fmidn_a_b2 B VSS VBN n08 l=0.014u nf=1 m=1 nfin=4
Mxmi0#2fn11 i0#2fmidn_a_b1 B VSS VBN n08 l=0.014u nf=1 m=1 nfin=4
Mxmi0#2fn04 int_zn i0#2fckb i0#2fmidn_a_b4 VBN n08 l=0.014u nf=1 m=1 nfin=4
Mxmi0#2fn03 int_zn i0#2fckb i0#2fmidn_a_b3 VBN n08 l=0.014u nf=1 m=1 nfin=4
Mxmi0#2fn02 int_zn i0#2fckb i0#2fmidn_a_b2 VBN n08 l=0.014u nf=1 m=1 nfin=4
Mxmi0#2fn01 int_zn i0#2fckb i0#2fmidn_a_b1 VBN n08 l=0.014u nf=1 m=1 nfin=4
Mxmi0#2fn2 X int_zn VSS VBN n08 l=0.014u nf=16 m=1 nfin=4
Mxmi0#2fn1 i0#2fmidn_a_b B VSS VBN n08 l=0.014u nf=1 m=1 nfin=4
Mxmi0#2fn0 int_zn i0#2fckb i0#2fmidn_a_b VBN n08 l=0.014u nf=1 m=1 nfin=4
Mxmi0#2fmn2 i0#2fckb A VSS VBN n08 l=0.014u nf=1 m=1 nfin=4
Mxmi0#2fp2 X int_zn VDD VBP p08 l=0.014u nf=16 m=1 nfin=4
Mxmi0#2fp1 int_zn B VDD VBP p08 l=0.014u nf=5 m=1 nfin=3
Mxmi0#2fp0 int_zn i0#2fckb VDD VBP p08 l=0.014u nf=5 m=1 nfin=3
Mxmi0#2fmp2 i0#2fckb A VDD VBP p08 l=0.014u nf=1 m=1 nfin=4
.ends SAEDRVT14_AN2B_MM_16




.subckt SAEDRVT14_AN2B_MM_1 A B VBN VBP VDD VSS X
Mxmi0#2fn2 X int_zn VSS VBN n08 l=0.014u nf=1 m=1 nfin=4
Mxmi0#2fn1 i0#2fmidn_a_b B VSS VBN n08 l=0.014u nf=1 m=1 nfin=4
Mxmi0#2fn0 int_zn i0#2fckb i0#2fmidn_a_b VBN n08 l=0.014u nf=1 m=1 nfin=4
Mxmi0#2fmn2 i0#2fckb A VSS VBN n08 l=0.014u nf=1 m=1 nfin=3
Mxmi0#2fp2 X int_zn VDD VBP p08 l=0.014u nf=1 m=1 nfin=4
Mxmi0#2fp1 int_zn B VDD VBP p08 l=0.014u nf=1 m=1 nfin=4
Mxmi0#2fp0 int_zn i0#2fckb VDD VBP p08 l=0.014u nf=1 m=1 nfin=4
Mxmi0#2fmp2 i0#2fckb A VDD VBP p08 l=0.014u nf=1 m=1 nfin=3
.ends SAEDRVT14_AN2B_MM_1




.subckt SAEDRVT14_AN2B_MM_20 A B VBN VBP VDD VSS X
Mxmi0#2fn15 i0#2fmidn_a_b5 B VSS VBN n08 l=0.014u nf=1 m=1 nfin=4
Mxmi0#2fn14 i0#2fmidn_a_b4 B VSS VBN n08 l=0.014u nf=1 m=1 nfin=4
Mxmi0#2fn13 i0#2fmidn_a_b3 B VSS VBN n08 l=0.014u nf=1 m=1 nfin=4
Mxmi0#2fn12 i0#2fmidn_a_b2 B VSS VBN n08 l=0.014u nf=1 m=1 nfin=4
Mxmi0#2fn11 i0#2fmidn_a_b1 B VSS VBN n08 l=0.014u nf=1 m=1 nfin=4
Mxmi0#2fn05 int_zn i0#2fckb i0#2fmidn_a_b5 VBN n08 l=0.014u nf=1 m=1 nfin=4
Mxmi0#2fn04 int_zn i0#2fckb i0#2fmidn_a_b4 VBN n08 l=0.014u nf=1 m=1 nfin=4
Mxmi0#2fn03 int_zn i0#2fckb i0#2fmidn_a_b3 VBN n08 l=0.014u nf=1 m=1 nfin=4
Mxmi0#2fn02 int_zn i0#2fckb i0#2fmidn_a_b2 VBN n08 l=0.014u nf=1 m=1 nfin=4
Mxmi0#2fn01 int_zn i0#2fckb i0#2fmidn_a_b1 VBN n08 l=0.014u nf=1 m=1 nfin=4
Mxmi0#2fn2 X int_zn VSS VBN n08 l=0.014u nf=20 m=1 nfin=4
Mxmi0#2fn1 i0#2fmidn_a_b B VSS VBN n08 l=0.014u nf=1 m=1 nfin=4
Mxmi0#2fn0 int_zn i0#2fckb i0#2fmidn_a_b VBN n08 l=0.014u nf=1 m=1 nfin=4
Mxmi0#2fmn2 i0#2fckb A VSS VBN n08 l=0.014u nf=1 m=1 nfin=4
Mxmi0#2fp2 X int_zn VDD VBP p08 l=0.014u nf=20 m=1 nfin=4
Mxmi0#2fp1 int_zn B VDD VBP p08 l=0.014u nf=6 m=1 nfin=3
Mxmi0#2fp0 int_zn i0#2fckb VDD VBP p08 l=0.014u nf=6 m=1 nfin=3
Mxmi0#2fmp2 i0#2fckb A VDD VBP p08 l=0.014u nf=1 m=1 nfin=4
.ends SAEDRVT14_AN2B_MM_20




.subckt SAEDRVT14_AN2B_MM_2 A B VBN VBP VDD VSS X
Mxmi0#2fn2 X int_zn VSS VBN n08 l=0.014u nf=4 m=1 nfin=3
Mxmi0#2fn1 i0#2fmidn_a_b B VSS VBN n08 l=0.014u nf=1 m=1 nfin=4
Mxmi0#2fn0 int_zn i0#2fckb i0#2fmidn_a_b VBN n08 l=0.014u nf=1 m=1 nfin=4
Mxmi0#2fmn2 i0#2fckb A VSS VBN n08 l=0.014u nf=1 m=1 nfin=2
Mxmi0#2fp2 X int_zn VDD VBP p08 l=0.014u nf=6 m=1 nfin=4
Mxmi0#2fp1 int_zn B VDD VBP p08 l=0.014u nf=1 m=1 nfin=4
Mxmi0#2fp0 int_zn i0#2fckb VDD VBP p08 l=0.014u nf=1 m=1 nfin=4
Mxmi0#2fmp2 i0#2fckb A VDD VBP p08 l=0.014u nf=1 m=1 nfin=2
.ends SAEDRVT14_AN2B_MM_2




.subckt saedrvt14_an2b_mm_4 a b vbn vbp vdd vss x
xmi0#2fn2 x int_zn vss vbn n08 l=0.014u nf=4 m=1 nfin=3
xmi0#2fn1 i0#2fmidn_a_b b vss vbn n08 l=0.014u nf=1 m=1 nfin=4
xmi0#2fn0 int_zn i0#2fckb i0#2fmidn_a_b vbn n08 l=0.014u nf=1 m=1 nfin=4
xmi0#2fmn2 i0#2fckb a vss vbn n08 l=0.014u nf=1 m=1 nfin=2
xmi0#2fp2 x int_zn vdd vbp p08 l=0.014u nf=4 m=1 nfin=4
xmi0#2fp1 int_zn b vdd vbp p08 l=0.014u nf=1 m=1 nfin=4
xmi0#2fp0 int_zn i0#2fckb vdd vbp p08 l=0.014u nf=1 m=1 nfin=4
xmi0#2fmp2 i0#2fckb a vdd vbp p08 l=0.014u nf=1 m=1 nfin=2
.ends saedrvt14_an2b_mm_4




.subckt SAEDRVT14_AN2B_MM_6 A B VBN VBP VDD VSS X
Mxmi0#2fn11 i0#2fmidn_a_b1 B VSS VBN n08 l=0.014u nf=1 m=1 nfin=4
Mxmi0#2fn01 int_zn i0#2fckb i0#2fmidn_a_b1 VBN n08 l=0.014u nf=1 m=1 nfin=4
Mxmi0#2fn2 X int_zn VSS VBN n08 l=0.014u nf=6 m=1 nfin=4
Mxmi0#2fn1 i0#2fmidn_a_b B VSS VBN n08 l=0.014u nf=1 m=1 nfin=4
Mxmi0#2fn0 int_zn i0#2fckb i0#2fmidn_a_b VBN n08 l=0.014u nf=1 m=1 nfin=4
Mxmi0#2fmn2 i0#2fckb A VSS VBN n08 l=0.014u nf=1 m=1 nfin=2
Mxmi0#2fp2 X int_zn VDD VBP p08 l=0.014u nf=6 m=1 nfin=4
Mxmi0#2fp1 int_zn B VDD VBP p08 l=0.014u nf=2 m=1 nfin=3
Mxmi0#2fp0 int_zn i0#2fckb VDD VBP p08 l=0.014u nf=2 m=1 nfin=3
Mxmi0#2fmp2 i0#2fckb A VDD VBP p08 l=0.014u nf=1 m=1 nfin=2
.ends SAEDRVT14_AN2B_MM_6




.subckt SAEDRVT14_AN2B_MM_8 A B VBN VBP VDD VSS X
Mxmi0#2fn12 i0#2fmidn_a_b2 B VSS VBN n08 l=0.014u nf=1 m=1 nfin=4
Mxmi0#2fn11 i0#2fmidn_a_b1 B VSS VBN n08 l=0.014u nf=1 m=1 nfin=4
Mxmi0#2fn02 int_zn i0#2fckb i0#2fmidn_a_b2 VBN n08 l=0.014u nf=1 m=1 nfin=4
Mxmi0#2fn01 int_zn i0#2fckb i0#2fmidn_a_b1 VBN n08 l=0.014u nf=1 m=1 nfin=4
Mxmi0#2fn2 X int_zn VSS VBN n08 l=0.014u nf=8 m=1 nfin=4
Mxmi0#2fn1 i0#2fmidn_a_b B VSS VBN n08 l=0.014u nf=1 m=1 nfin=4
Mxmi0#2fn0 int_zn i0#2fckb i0#2fmidn_a_b VBN n08 l=0.014u nf=1 m=1 nfin=4
Mxmi0#2fmn2 i0#2fckb A VSS VBN n08 l=0.014u nf=1 m=1 nfin=4
Mxmi0#2fp2 X int_zn VDD VBP p08 l=0.014u nf=8 m=1 nfin=4
Mxmi0#2fp1 int_zn B VDD VBP p08 l=0.014u nf=3 m=1 nfin=3
Mxmi0#2fp0 int_zn i0#2fckb VDD VBP p08 l=0.014u nf=3 m=1 nfin=3
Mxmi0#2fmp2 i0#2fckb A VDD VBP p08 l=0.014u nf=1 m=1 nfin=4
.ends SAEDRVT14_AN2B_MM_8




.subckt SAEDRVT14_AN2B_PMM_2 VDD VSS VDDR X A B
Mxn2 X int_zn VSS VSS n08 l=0.014u nf=2 m=2 nfin=3
Mxn1 net019 isob VSS VSS n08 l=0.014u nf=1 m=1 nfin=4
Mxn0 int_zn B net019 VSS n08 l=0.014u nf=1 m=1 nfin=4
Mxmn3 isob A VSS VSS n08 l=0.014u nf=1 m=1 nfin=4
Mxp2 X int_zn VDDR VDDR p08 l=0.014u nf=2 m=2 nfin=3
Mxp1 int_zn B VDDR VDDR p08 l=0.014u nf=1 m=1 nfin=3
Mxp0 int_zn isob VDDR VDDR p08 l=0.014u nf=1 m=1 nfin=2
Mxmp3 isob A VDDR VDDR p08 l=0.014u nf=1 m=1 nfin=3
.ends SAEDRVT14_AN2B_PMM_2




.subckt SAEDRVT14_AN2B_PMM_8 VDD VSS VDDR X A B
Mxn2 X int_zn VSS VSS n08 l=0.014u nf=6 m=1 nfin=4
Mxn1 net019 isob VSS VSS n08 l=0.014u nf=1 m=1 nfin=4
Mxn0 int_zn B net019 VSS n08 l=0.014u nf=1 m=1 nfin=4
Mxmn3 isob A VSS VSS n08 l=0.014u nf=1 m=1 nfin=4
Mxp2 X int_zn VDDR VDDR p08 l=0.014u nf=6 m=1 nfin=4
Mxp1 int_zn B VDDR VDDR p08 l=0.014u nf=1 m=1 nfin=3
Mxp0 int_zn isob VDDR VDDR p08 l=0.014u nf=1 m=1 nfin=2
Mxmp3 isob A VDDR VDDR p08 l=0.014u nf=1 m=1 nfin=3
.ends SAEDRVT14_AN2B_PMM_8




.subckt SAEDRVT14_AN2B_PSECO_1 VDD VSS VDDR X A B
Mxn2 X int_zn VSS VSS n08 l=0.014u nf=1 m=1 nfin=3
Mxn1 net019 isob VSS VSS n08 l=0.014u nf=1 m=1 nfin=4
Mxn0 int_zn B net019 VSS n08 l=0.014u nf=1 m=1 nfin=4
Mxmn3 isob A VSS VSS n08 l=0.014u nf=1 m=1 nfin=2
Mxmn2 VSS int_zn VSS VSS n08 l=0.014u nf=1 m=1 nfin=2
Mxp2 X int_zn VDDR VDDR p08 l=0.014u nf=1 m=1 nfin=4
Mxp1 int_zn B VDDR VDDR p08 l=0.014u nf=1 m=1 nfin=2
Mxp0 int_zn isob VDDR VDDR p08 l=0.014u nf=1 m=1 nfin=4
Mxmp3 isob A VDDR VDDR p08 l=0.014u nf=1 m=1 nfin=4
Mxmp2 VDDR int_zn VDDR VDDR p08 l=0.014u nf=1 m=1 nfin=4
.ends SAEDRVT14_AN2B_PSECO_1




.subckt SAEDRVT14_AN2B_PSECO_2 VDD VSS VDDR X A B
Mxn2 X int_zn VSS VSS n08 l=0.014u nf=2 m=1 nfin=3
Mxn1 net019 isob VSS VSS n08 l=0.014u nf=1 m=1 nfin=4
Mxn0 int_zn B net019 VSS n08 l=0.014u nf=1 m=1 nfin=4
Mxmn3 isob A VSS VSS n08 l=0.014u nf=1 m=1 nfin=2
Mxp2 X int_zn VDDR VDDR p08 l=0.014u nf=2 m=1 nfin=4
Mxp1 int_zn B VDDR VDDR p08 l=0.014u nf=1 m=1 nfin=2
Mxp0 int_zn isob VDDR VDDR p08 l=0.014u nf=1 m=1 nfin=4
Mxmp3 isob A VDDR VDDR p08 l=0.014u nf=1 m=1 nfin=4
.ends SAEDRVT14_AN2B_PSECO_2




.subckt SAEDRVT14_AN2B_PSECO_4 VDD VSS VDDR X A B
Mxn11 net0191 isob VSS VSS n08 l=0.014u nf=1 m=1 nfin=4
Mxn01 int_zn B net0191 VSS n08 l=0.014u nf=1 m=1 nfin=4
Mxn2 X int_zn VSS VSS n08 l=0.014u nf=4 m=1 nfin=3
Mxn1 net019 isob VSS VSS n08 l=0.014u nf=1 m=1 nfin=4
Mxn0 int_zn B net019 VSS n08 l=0.014u nf=1 m=1 nfin=4
Mxmn3 isob A VSS VSS n08 l=0.014u nf=1 m=1 nfin=2
Mxp2 X int_zn VDDR VDDR p08 l=0.014u nf=4 m=1 nfin=4
Mxp1 int_zn B VDDR VDDR p08 l=0.014u nf=2 m=1 nfin=2
Mxp0 int_zn isob VDDR VDDR p08 l=0.014u nf=2 m=1 nfin=4
Mxmp3 isob A VDDR VDDR p08 l=0.014u nf=1 m=1 nfin=4
.ends SAEDRVT14_AN2B_PSECO_4




.subckt SAEDRVT14_AN2B_PSECO_8 VDD VSS VDDR X A B
Mxn12 net0192 isob VSS VSS n08 l=0.014u nf=1 m=1 nfin=4
Mxn11 net0191 isob VSS VSS n08 l=0.014u nf=1 m=1 nfin=4
Mxn02 int_zn B net0192 VSS n08 l=0.014u nf=1 m=1 nfin=4
Mxn01 int_zn B net0191 VSS n08 l=0.014u nf=1 m=1 nfin=4
Mxn2 X int_zn VSS VSS n08 l=0.014u nf=8 m=1 nfin=3
Mxn1 net019 isob VSS VSS n08 l=0.014u nf=1 m=1 nfin=4
Mxn0 int_zn B net019 VSS n08 l=0.014u nf=1 m=1 nfin=4
Mxmn3 isob A VSS VSS n08 l=0.014u nf=1 m=1 nfin=2
Mxp2 X int_zn VDDR VDDR p08 l=0.014u nf=8 m=1 nfin=4
Mxp1 int_zn B VDDR VDDR p08 l=0.014u nf=3 m=1 nfin=2
Mxp0 int_zn isob VDDR VDDR p08 l=0.014u nf=3 m=1 nfin=4
Mxmp3 isob A VDDR VDDR p08 l=0.014u nf=1 m=1 nfin=4
.ends SAEDRVT14_AN2B_PSECO_8




.subckt SAEDRVT14_AN2_ECO_2 VDD VSS VBP VBN X A1 A2
Mxmn2 X int_zn VSS VBN n08 l=0.014u nf=2 m=1 nfin=4
Mxmn1 midn_a_b A2 VSS VBN n08 l=0.014u nf=1 m=1 nfin=4
Mxmn0 int_zn A1 midn_a_b VBN n08 l=0.014u nf=1 m=1 nfin=4
Mxmp2 X int_zn VDD VBP p08 l=0.014u nf=3 m=1 nfin=4
Mxmp1 int_zn A1 VDD VBP p08 l=0.014u nf=1 m=1 nfin=4
Mxmp0 int_zn A2 VDD VBP p08 l=0.014u nf=1 m=1 nfin=4
.ends SAEDRVT14_AN2_ECO_2




.subckt SAEDRVT14_AN2_ISO_1 VDD VSS VBP VBN X CK EN
Mxn2 X int_zn VSS VBN n08 l=0.014u nf=1 m=1 nfin=2
Mxn1 midn_a_b EN VSS VBN n08 l=0.014u nf=1 m=1 nfin=4
Mxn0 int_zn CK midn_a_b VBN n08 l=0.014u nf=1 m=1 nfin=3
Mxp2 X int_zn VDD VBP p08 l=0.014u nf=1 m=1 nfin=2
Mxp1 int_zn CK VDD VBP p08 l=0.014u nf=1 m=1 nfin=2
Mxp0 int_zn EN VDD VBP p08 l=0.014u nf=1 m=1 nfin=3
.ends SAEDRVT14_AN2_ISO_1




.subckt SAEDRVT14_AN2_ISO4_1 VDD VSS VBP VBN EN CK0 CK1 CK2 CK3 X0 X1 X2 X3
MM15 X0 int_zn_0 VSS VBN n08 l=0.014u nf=1 m=1 nfin=3
MM14 midn_a_b_0 EN VSS VBN n08 l=0.014u nf=1 m=1 nfin=3
MM13 int_zn_0 CK0 midn_a_b_0 VBN n08 l=0.014u nf=1 m=1 nfin=3
MM9 X1 int_zn_1 VSS VBN n08 l=0.014u nf=1 m=1 nfin=3
MM8 midn_a_b_1 EN VSS VBN n08 l=0.014u nf=1 m=1 nfin=3
MM7 int_zn_1 CK1 midn_a_b_1 VBN n08 l=0.014u nf=1 m=1 nfin=3
MM2 X2 int_zn_2 VSS VBN n08 l=0.014u nf=1 m=1 nfin=3
MM1 midn_a_b_2 EN VSS VBN n08 l=0.014u nf=1 m=1 nfin=3
MM0 int_zn_2 CK2 midn_a_b_2 VBN n08 l=0.014u nf=1 m=1 nfin=3
Mxn2 X3 int_zn_3 VSS VBN n08 l=0.014u nf=1 m=1 nfin=3
Mxn1 midn_a_b_3 EN VSS VBN n08 l=0.014u nf=1 m=1 nfin=3
Mxn0 int_zn_3 CK3 midn_a_b_3 VBN n08 l=0.014u nf=1 m=1 nfin=3
MM18 X0 int_zn_0 VDD VBP p08 l=0.014u nf=1 m=1 nfin=4
MM17 int_zn_0 CK0 VDD VBP p08 l=0.014u nf=1 m=1 nfin=3
MM16 int_zn_0 EN VDD VBP p08 l=0.014u nf=1 m=1 nfin=3
MM12 X1 int_zn_1 VDD VBP p08 l=0.014u nf=1 m=1 nfin=4
MM11 int_zn_1 CK1 VDD VBP p08 l=0.014u nf=1 m=1 nfin=3
MM10 int_zn_1 EN VDD VBP p08 l=0.014u nf=1 m=1 nfin=3
MM5 X2 int_zn_2 VDD VBP p08 l=0.014u nf=1 m=1 nfin=4
MM4 int_zn_2 CK2 VDD VBP p08 l=0.014u nf=1 m=1 nfin=3
MM3 int_zn_2 EN VDD VBP p08 l=0.014u nf=1 m=1 nfin=3
Mxp2 X3 int_zn_3 VDD VBP p08 l=0.014u nf=1 m=1 nfin=4
Mxp1 int_zn_3 CK3 VDD VBP p08 l=0.014u nf=1 m=1 nfin=3
Mxp0 int_zn_3 EN VDD VBP p08 l=0.014u nf=1 m=1 nfin=3
.ends SAEDRVT14_AN2_ISO4_1




.subckt SAEDRVT14_AN2_ISO4_4 VDD VSS VBP VBN EN CK0 CK1 CK2 CK3 X0 X1 X2 X3